engines/tests/json/Transmission_Network_PT_2020_new.m
function mpc = Transmission_Network_PT_2020_new

%% MATPOWER Case Format : Version 2
mpc.version = '2';

%%-----  Power Flow Data  -----%%
%% system MVA base
mpc.baseMVA = 100;

%% bus data
%	bus_i	type	Pd	Qd	Gs	Bs	area	Vm	Va	baseKV	zone	Vmax	Vmin
mpc.bus = [
	1	2	0.000	0.000	0	0	1	1.0473	12.45	400	1	1.05	0.95	;
	2	2	0.000	0.000	0	0	1	1.0479	14.22	400	1	1.05	0.95	;
	3	2	0.000	0.000	0	0	1	1.0407	5.48	400	1	1.05	0.95	;
	4	2	0.000	0.000	0	0	1	1.0363	0.97	400	1	1.05	0.95	;
	5	2	0.000	0.000	0	0	1	1.0476	15.09	220	1	1.05	0.95	;
	6	2	0.000	0.000	0	0	1	1.0471	15.05	220	1	1.05	0.95	;
	7	2	0.000	0.000	0	0	1	1.0314	-4.42	400	1	1.05	0.95	;
	305	2	0.000	0.000	0	0	1	1.0442	10.45	400	1	1.05	0.95	;
	8	1	0.000	0.000	0	0	1	1.0055	-1.02	150	2	1.05	0.95	;
	9	1	0.000	0.000	0	0	1	1.0283	-5.24	150	2	1.05	0.95	;
	10	2	0.000	0.000	0	0	1	1.0341	-4.47	150	2	1.05	0.95	;
	11	1	0.967	-0.097	0	0	1	1	0	150	2	1.05	0.95	;
	12	1	0.000	0.000	0	0	1	1.017	-7.89	150	2	1.05	0.95	;
	13	1	3.870	1.161	0	0	1	1	0	150	2	1.05	0.95	;
	14	2	0.000	0.000	0	0	1	1.0296	-5.1	150	2	1.05	0.95	;
	15	1	0.000	0.000	0	0	1	1.035	-4.24	150	2	1.05	0.95	;
	16	1	0.000	0.000	0	0	1	1.021	10.09	150	2	1.05	0.95	;
	17	1	0.000	0.000	0	0	1	1.0257	9.19	150	2	1.05	0.95	;
	18	1	6.945	-0.893	0	0	1	1.0245	8.84	150	2	1.05	0.95	;
	19	1	0.000	0.000	0	0	1	1.0204	-6.6	150	2	1.05	0.95	;
	20	1	0.000	0.000	0	0	1	1.0247	-5.94	150	2	1.05	0.95	;
	21	1	0.000	0.000	0	0	1	1.0258	8.98	150	2	1.05	0.95	;
	22	2	0.000	0.000	0	0	1	1.0276	-6.02	150	2	1.05	0.95	;
	23	1	0.000	0.000	0	0	1	1.0131	-8.38	150	2	1.05	0.95	;
	24	2	0.000	0.000	0	0	1	1.0214	6.8	150	2	1.05	0.95	;
	25	1	0.000	0.000	0	0	1	1.0209	8.89	150	2	1.05	0.95	;
	26	1	3.289	0.387	0	0	1	1	0	150	2	1.05	0.95	;
	27	1	0.000	-0.300	0	0	1	1	0	150	2	1.05	0.95	;
	28	1	0.193	-0.193	0	0	1	1	0	150	2	1.05	0.95	;
	29	2	0.000	0.000	0	0	1	1.024	-7	150	2	1.05	0.95	;
	30	2	0.000	0.000	0	0	1	1.0339	10.66	150	2	1.05	0.95	;
	31	1	0.000	0.000	0	0	1	1.0172	6.84	150	2	1.05	0.95	;
	32	1	0.000	0.000	0	0	1	1.0287	9.83	150	2	1.05	0.95	;
	33	1	0.000	0.000	0	0	1	1.0369	11.88	150	2	1.05	0.95	;
	34	2	0.000	0.000	0	-75	1	1.0289	-6.37	150	2	1.05	0.95	;
	36	1	0.000	0.000	0	0	1	1.0183	-0.91	220	2	1.05	0.95	;
	37	1	0.000	0.000	0	0	1	1.0231	-3.49	220	2	1.05	0.95	;
	38	1	0.000	0.000	0	0	1	1.0226	5.79	220	2	1.05	0.95	;
	39	1	0.000	0.000	0	0	1	1.0254	2.62	220	2	1.05	0.95	;
	40	1	0.000	0.000	0	0	1	1.0458	14	220	2	1.05	0.95	;
	41	1	0.000	0.000	0	0	1	1.0228	5.83	220	2	1.05	0.95	;
	42	1	0.000	0.000	0	0	1	1.0281	5.59	220	2	1.05	0.95	;
	43	1	0.000	0.000	0	0	1	1.0216	-3.79	220	2	1.05	0.95	;
	44	1	0.000	0.000	0	0	1	1.0215	5.49	220	2	1.05	0.95	;
	45	1	0.000	0.000	0	0	1	1.0244	-0.96	220	2	1.05	0.95	;
	46	1	0.000	0.000	0	0	1	1.0223	-2.28	220	2	1.05	0.95	;
	47	1	0.000	0.000	0	0	1	1.0284	7.44	220	2	1.05	0.95	;
	48	1	39.684	7.937	0	0	1	1.0242	4.67	220	2	1.05	0.95	;
	49	1	0.000	0.000	0	0	1	1.0199	5.68	220	2	1.05	0.95	;
	50	1	0.000	0.000	0	100	1	1.023	-3.26	220	2	1.05	0.95	;
	51	1	0.000	0.000	0	0	1	1.0358	11.4	220	2	1.05	0.95	;
	52	1	0.000	0.000	0	0	1	1.0245	1.13	220	2	1.05	0.95	;
	53	1	0.000	0.000	0	0	1	1.022	5.64	220	2	1.05	0.95	;
	54	1	0.000	0.000	0	0	1	1.0462	20.67	220	2	1.05	0.95	;
	55	1	0.000	0.000	0	0	1	1.0212	-3.9	220	2	1.05	0.95	;
	56	1	0.000	0.000	0	100	1	1.0231	-4.21	220	2	1.05	0.95	;
	57	1	0.000	0.000	0	0	1	1.0231	6.16	220	2	1.05	0.95	;
	58	1	0.000	0.000	0	0	1	1.021	-3.97	220	2	1.05	0.95	;
	59	1	0.000	0.000	0	0	1	1.0233	-3.62	220	2	1.05	0.95	;
	60	1	0.000	0.000	0	0	1	1.0295	7.5	220	2	1.05	0.95	;
	61	2	0.000	0.000	0	0	1	1.0288	7.54	220	2	1.05	0.95	;
	62	1	0.000	0.000	0	0	1	1.0297	7.48	220	2	1.05	0.95	;
	63	1	0.000	0.000	0	0	1	1.0434	18.77	220	2	1.05	0.95	;
	64	2	0.000	0.000	0	0	1	1.0189	-2.2	220	2	1.05	0.95	;
	65	2	0.000	0.000	0	0	1	1.0341	8.13	220	2	1.05	0.95	;
	66	1	0.000	0.000	0	0	1	1.0307	8.03	220	2	1.05	0.95	;
	67	1	1.161	-0.097	0	0	1	1	0	220	2	1.05	0.95	;
	68	1	0.000	0.000	0	0	1	1.0218	5.66	220	2	1.05	0.95	;
	69	1	0.000	0.000	0	0	1	1.0266	4.45	220	2	1.05	0.95	;
	71	1	0.000	0.000	0	0	1	1.0245	1.89	220	2	1.05	0.95	;
	72	1	0.000	0.000	0	-70	1	1.0228	7.19	220	2	1.05	0.95	;
	73	2	0.000	0.000	0	0	1	1.0306	14.75	220	2	1.05	0.95	;
	74	1	0.000	0.000	0	0	1	1.0216	-2.64	220	2	1.05	0.95	;
	75	1	0.000	0.000	0	0	1	1.0305	9.58	220	2	1.05	0.95	;
	76	1	0.000	0.000	0	0	1	1.0209	-3.92	220	2	1.05	0.95	;
	77	1	0.000	0.000	0	0	1	1.0357	17.15	220	2	1.05	0.95	;
	78	1	0.000	0.000	0	-70	1	1.0248	3.8	220	2	1.05	0.95	;
	79	1	0.000	0.000	0	0	1	1.0295	11.37	220	2	1.05	0.95	;
	80	1	0.000	0.000	0	0	1	1.0408	-2.08	400	2	1.05	0.95	;
	81	1	0.000	0.000	0	0	1	1.0383	8.14	400	2	1.05	0.95	;
	82	1	0.000	0.000	0	0	1	1.0415	-1.03	400	2	1.05	0.95	;
	83	1	0.000	0.000	0	0	1	1.0433	3.76	400	2	1.05	0.95	;
	84	1	0.000	0.000	0	0	1	1.0399	-2.61	400	2	1.05	0.95	;
	85	1	0.000	0.000	0	-150	1	1.0399	1.97	400	2	1.05	0.95	;
	86	1	0.000	0.000	0	0	1	1.0406	-2.86	400	2	1.05	0.95	;
	87	1	0.000	0.000	0	0	1	1.04	-3.06	400	2	1.05	0.95	;
	88	1	0.000	0.000	0	0	1	1.0412	9.51	400	2	1.05	0.95	;
	89	1	0.000	0.000	0	-150	1	1.0423	-1.12	400	2	1.05	0.95	;
	90	1	0.000	0.000	0	-150	1	1.0455	10	400	2	1.05	0.95	;
	91	1	0.000	0.000	0	0	1	1.0434	10.37	400	2	1.05	0.95	;
	92	1	0.000	0.000	0	-150	1	1.0397	9.26	400	2	1.05	0.95	;
	93	1	0.000	0.000	0	0	1	1.0401	8.69	400	2	1.05	0.95	;
	94	1	0.000	0.000	0	0	1	1.0398	8.52	400	2	1.05	0.95	;
	95	1	0.000	0.000	0	0	1	1.0462	6.47	400	2	1.05	0.95	;
	96	1	0.000	0.000	0	0	1	1.0464	11.54	400	2	1.05	0.95	;
	97	2	0.000	0.000	0	0	1	1.041	-2.55	400	2	1.05	0.95	;
	98	1	0.000	0.000	0	0	1	1.045	5.42	400	2	1.05	0.95	;
	99	1	0.000	0.000	0	0	1	1.0451	5.02	400	2	1.05	0.95	;
	100	1	0.000	0.000	0	0	1	1.0418	-0.01	400	2	1.05	0.95	;
	101	1	0.000	0.000	0	-150	1	1.0411	7.03	400	2	1.05	0.95	;
	102	1	0.000	0.000	0	-150	1	1.0235	-4.4	400	2	1.05	0.95	;
	103	1	0.000	0.000	0	0	1	1.045	8.46	400	2	1.05	0.95	;
	104	1	0.000	0.000	0	-150	1	1.0414	10.18	400	2	1.05	0.95	;
	105	1	0.000	0.000	0	0	1	1.0413	0.77	400	2	1.05	0.95	;
	106	1	0.000	0.000	0	0	1	1.0488	14.19	400	2	1.05	0.95	;
	107	2	0.000	0.000	0	0	1	1.0282	-4.4	400	2	1.05	0.95	;
	108	2	16.515	1.651	0	0	1	1	0	130	2	1.05	0.95	;
	109	2	288.038	28.804	0	0	1	1	0	63	2	1.05	0.95	;
	110	2	180.569	18.057	0	0	1	1	0	63	2	1.05	0.95	;
	111	2	171.406	17.141	0	0	1	1	0	63	2	1.05	0.95	;
	112	2	227.436	22.744	0	0	1	1	0	63	2	1.05	0.95	;
	113	2	78.735	7.874	0	0	1	1	0	63	2	1.05	0.95	;
	114	2	175.897	17.590	0	0	1	1	0	63	2	1.05	0.95	;
	115	2	64.577	6.458	0	0	1	1	0	63	2	1.05	0.95	;
	116	2	347.998	34.800	0	0	1	1	0	63	2	1.05	0.95	;
	117	2	57.952	5.795	0	0	1	1	0	63	2	1.05	0.95	;
	118	2	130.434	13.043	0	0	1	1	0	63	2	1.05	0.95	;
	119	2	263.377	26.338	0	0	1	1	0	63	2	1.05	0.95	;
	120	2	150.924	15.092	0	0	1	1	0	63	2	1.05	0.95	;
	121	2	128.818	12.882	0	0	1	1	0	63	2	1.05	0.95	;
	122	2	240.423	24.042	0	0	1	1	0	63	2	1.05	0.95	;
	123	2	208.300	20.830	0	0	1	1	0	63	2	1.05	0.95	;
	124	2	141.982	14.198	0	0	1	1	0	63	2	1.05	0.95	;
	125	2	135.760	13.576	0	0	1	1	0	63	2	1.05	0.95	;
	126	2	100.672	10.067	0	0	1	1	0	63	2	1.05	0.95	;
	127	2	88.985	8.899	0	0	1	1	0	63	2	1.05	0.95	;
	128	2	337.562	33.756	0	0	1	1	0	63	2	1.05	0.95	;
	129	2	305.236	30.524	0	0	1	1	0	63	2	1.05	0.95	;
	130	2	368.392	36.839	0	0	1	1	0	63	2	1.05	0.95	;
	131	2	159.277	15.928	0	0	1	1	0	63	2	1.05	0.95	;
	132	2	11.766	1.177	0	0	1	1	0	63	2	1.05	0.95	;
	133	2	141.085	14.108	0	0	1	1	0	63	2	1.05	0.95	;
	134	2	196.118	19.612	0	0	1	1	0	63	2	1.05	0.95	;
	135	1	213.910	12.577	0	0	1	1	0	63	2	1.05	0.95	;
	136	2	242.579	24.258	0	0	1	1	0	63	2	1.05	0.95	;
	137	2	135.888	13.589	0	0	1	1	0	63	2	1.05	0.95	;
	138	2	137.598	13.760	0	0	1	1	0	63	2	1.05	0.95	;
	139	2	169.328	16.933	0	0	1	1	0	63	2	1.05	0.95	;
	140	2	93.317	9.332	0	0	1	1	0	63	2	1.05	0.95	;
	141	2	122.286	12.229	0	0	1	1	0	63	2	1.05	0.95	;
	142	2	147.930	14.793	0	0	1	1	0	63	2	1.05	0.95	;
	143	1	48.568	3.967	0	0	1	1	0	63	2	1.05	0.95	;
	144	2	73.556	7.356	0	0	1	1	0	63	2	1.05	0.95	;
	145	2	213.805	21.380	0	0	1	1	0	63	2	1.05	0.95	;
	146	2	15.480	1.548	0	0	1	1	0	63	2	1.05	0.95	;
	147	2	80.502	8.050	0	0	1	1	0	63	2	1.05	0.95	;
	148	1	0.000	0.000	0	0	1	1.0078	10.4	63	2	1.05	0.95	;
	149	2	153.632	15.363	0	0	1	1	0	63	2	1.05	0.95	;
	150	2	87.107	8.711	0	0	1	1	0	63	2	1.05	0.95	;
	151	2	208.967	20.897	0	0	1	1	0	63	2	1.05	0.95	;
	152	2	93.823	9.382	0	0	1	1	0	63	2	1.05	0.95	;
	153	2	10.140	1.014	0	0	1	1	0	63	2	1.05	0.95	;
	154	2	97.181	9.718	0	0	1	1	0	63	2	1.05	0.95	;
	155	2	54.110	5.411	0	0	1	1	0	63	2	1.05	0.95	;
	156	2	18.858	1.886	0	0	1	1	0	63	2	1.05	0.95	;
	157	2	92.122	9.212	0	0	1	1	0	63	2	1.05	0.95	;
	158	2	98.434	9.843	0	0	1	1	0	63	2	1.05	0.95	;
	159	2	91.950	9.195	0	0	1	1	0	63	2	1.05	0.95	;
	160	2	93.571	9.357	0	0	1	1	0	63	2	1.05	0.95	;
	161	2	20.821	2.082	0	0	1	1	0	63	2	1.05	0.95	;
	162	2	71.521	7.152	0	0	1	1	0	63	2	1.05	0.95	;
	163	2	7.322	0.732	0	0	1	1	0	63	2	1.05	0.95	;
	164	2	32.921	3.292	0	0	1	1	0	63	2	1.05	0.95	;
	165	2	41.619	4.162	0	0	1	1	0	63	2	1.05	0.95	;
	166	2	131.410	13.141	0	0	1	1	0	63	2	1.05	0.95	;
	167	2	13.433	1.343	0	0	1	1	0	63	2	1.05	0.95	;
	168	2	158.737	15.874	0	0	1	1	0	63	2	1.05	0.95	;
	169	2	28.618	2.862	0	0	1	1	0	63	2	1.05	0.95	;
	170	2	31.548	3.155	0	0	1	1	0	63	2	1.05	0.95	;
	171	2	64.265	6.426	0	0	1	1	0	63	2	1.05	0.95	;
	172	2	29.200	2.920	0	0	1	1	0	63	2	1.05	0.95	;
	173	2	0.000	0.000	0	0	1	1.0378	12.11	150	2	1.05	0.95	;
	174	2	0.000	0.000	0	0	1	1.0367	11.65	150	2	1.05	0.95	;
	175	2	0.000	0.000	0	0	1	1.0083	-0.73	150	2	1.05	0.95	;
	176	2	0.000	0.000	0	0	1	1.0082	-0.73	150	2	1.05	0.95	;
	177	2	0.000	0.000	0	0	1	1.0391	12.28	150	2	1.05	0.95	;
	178	2	0.000	0.000	0	0	1	1.026	11.18	150	2	1.05	0.95	;
	179	2	0.000	0.000	0	0	1	1.0364	11.05	150	2	1.05	0.95	;
	180	1	0.000	0.000	0	0	1	1.0284	-5.39	150	2	1.05	0.95	;
	181	2	0.000	0.000	0	0	1	1.0262	7.79	150	2	1.05	0.95	;
	182	2	0.000	0.000	0	0	1	1.0373	12	150	2	1.05	0.95	;
	184	1	0.000	0.000	0	0	1	1.0336	10.53	150	2	1.05	0.95	;
	185	1	0.000	0.000	0	0	1	1.0315	-4.96	150	2	1.05	0.95	;
	186	1	0.000	0.000	0	0	1	1.0261	-5.98	150	2	1.05	0.95	;
	187	2	0.000	0.000	0	0	1	1.0183	-0.91	220	2	1.05	0.95	;
	188	2	0.000	0.000	0	0	1	1.0183	-0.91	220	2	1.05	0.95	;
	189	2	0.000	0.000	0	0	1	1.0183	-0.91	220	2	1.05	0.95	;
	190	1	0.000	0.000	0	0	1	1.0201	5.61	220	2	1.05	0.95	;
	191	2	0.000	0.000	0	0	1	1.0484	21.77	220	2	1.05	0.95	;
	192	2	0.000	0.000	0	0	1	1.0429	19.27	220	2	1.05	0.95	;
	193	1	0.000	0.000	0	0	1	1.0211	5.78	220	2	1.05	0.95	;
	194	2	0.000	0.000	0	0	1	1.0412	13.38	220	2	1.05	0.95	;
	195	2	0.000	0.000	0	0	1	1.0296	3.68	220	2	1.05	0.95	;
	196	2	0.000	0.000	0	0	1	1.0462	14.08	220	2	1.05	0.95	;
	198	2	0.000	0.000	0	0	1	1.0477	15.23	220	2	1.05	0.95	;
	199	1	0.000	0.000	0	0	1	1.0247	1.1	220	2	1.05	0.95	;
	200	2	0.000	0.000	0	0	1	1.0462	20.68	220	2	1.05	0.95	;
	201	2	0.000	0.000	0	0	1	1.0462	20.68	220	2	1.05	0.95	;
	202	2	0.000	0.000	0	0	1	1.0462	20.68	220	2	1.05	0.95	;
	203	2	0.000	0.000	0	0	1	1.0462	20.71	220	2	1.05	0.95	;
...
];

%% generator data
%	bus	Pg	Qg	Qmax	Qmin	Vg	mBase	status	Pmax	Pmin	Pc1	Pc2	Qc1min	Qc1max	Qc2min	Qc2max	ramp_agc	ramp_10	ramp_30	ramp_q	apf
mpc.gen = [
	1	363.637	-43.001	9999.000	-9999.000	1.0473	100.00	1	9999.000	-9999.000	0	0	0	0	0	0	0	0	0	0	0	;
	2	43.282	-82.020	9999.000	-9999.000	1.0479	100.00	1	9999.000	-9999.000	0	0	0	0	0	0	0	0	0	0	0	;
	3	13.229	-88.346	9999.000	-9999.000	1.0407	100.00	1	9999.000	-9999.000	0	0	0	0	0	0	0	0	0	0	0	;
	4	20.321	-60.469	9999.000	-9999.000	1.0363	100.00	1	9999.000	-9999.000	0	0	0	0	0	0	0	0	0	0	0	;
	5	114.274	-14.655	9999.000	-9999.000	1.0476	100.00	1	9999.000	-9999.000	0	0	0	0	0	0	0	0	0	0	0	;
	6	73.566	-9.689	9999.000	-9999.000	1.0471	100.00	1	9999.000	-9999.000	0	0	0	0	0	0	0	0	0	0	0	;
	7	0.000	9.844	9999.000	-9999.000	1.0314	100.00	1	9999.000	-9999.000	0	0	0	0	0	0	0	0	0	0	0	;
	305	110.878	-18.825	9999.000	-9999.000	1.0442	100.00	1	9999.000	-9999.000	0	0	0	0	0	0	0	0	0	0	0	;
	10	0.000	0.000	40.734	-40.734	1.0341	109.68	0	101.835	0.000	0	0	0	0	0	0	0	0	0	0	0	;
	14	0.000	0.000	46.928	-46.928	1.0296	126.36	0	117.321	0.000	0	0	0	0	0	0	0	0	0	0	0	;
	22	0.000	0.000	29.539	-29.539	1.0276	79.54	0	73.848	0.000	0	0	0	0	0	0	0	0	0	0	0	;
	22	0.000	0.000	39.791	-39.791	1.0276	107.14	0	99.478	0.000	0	0	0	0	0	0	0	0	0	0	0	;
	24	0.000	0.000	46.928	-46.928	1.0214	126.36	0	117.321	0.000	0	0	0	0	0	0	0	0	0	0	0	;
	29	0.000	0.000	30.551	-30.551	1.0240	82.26	0	76.376	0.000	0	0	0	0	0	0	0	0	0	0	0	;
	30	31.000	1.612	15.500	-12.400	1.0339	34.66	1	31.000	15.500	0	0	0	0	0	0	0	0	0	0	0	;
	30	0.000	0.000	15.500	-12.400	1.0339	34.66	0	31.000	15.500	0	0	0	0	0	0	0	0	0	0	0	;
	34	0.000	0.000	50.918	-50.918	1.0289	137.10	0	127.294	0.000	0	0	0	0	0	0	0	0	0	0	0	;
	61	50.000	2.989	30.000	-24.000	1.0288	67.08	1	60.000	30.000	0	0	0	0	0	0	0	0	0	0	0	;
	61	56.000	2.989	30.000	-24.000	1.0288	67.08	1	60.000	30.000	0	0	0	0	0	0	0	0	0	0	0	;
	61	0.000	0.000	30.000	-24.000	1.0288	67.08	0	60.000	30.000	0	0	0	0	0	0	0	0	0	0	0	;
	64	0.000	0.000	32.498	-32.498	1.0189	87.50	0	81.245	0.000	0	0	0	0	0	0	0	0	0	0	0	;
	65	1.406	2.786	17.990	-17.990	1.0341	48.44	1	44.975	0.000	0	0	0	0	0	0	0	0	0	0	0	;
	73	2.407	4.150	30.789	-30.789	1.0306	82.90	1	76.974	0.000	0	0	0	0	0	0	0	0	0	0	0	;
	97	0.000	0.000	46.928	-46.928	1.0410	126.36	0	117.321	0.000	0	0	0	0	0	0	0	0	0	0	0	;
	107	0.000	0.000	81.468	-81.468	1.0282	219.36	0	203.670	0.000	0	0	0	0	0	0	0	0	0	0	0	;
	108	0.585	1.200	7.487	-7.487	1.0075	20.16	1	18.718	0.000	0	0	0	0	0	0	0	0	0	0	0	;
	108	8.189	1.488	9.285	-9.285	1.0075	25.00	1	23.212	0.000	0	0	0	0	0	0	0	0	0	0	0	;
	109	15.000	2.832	7.750	-6.200	1.0153	17.33	1	15.500	7.750	0	0	0	0	0	0	0	0	0	0	0	;
	109	27.000	5.480	15.000	-12.000	1.0153	33.54	1	30.000	15.000	0	0	0	0	0	0	0	0	0	0	0	;
	109	34.628	7.754	24.038	-24.038	1.0153	64.72	1	60.095	0.000	0	0	0	0	0	0	0	0	0	0	0	;
	109	1.354	5.590	17.329	-17.329	1.0153	46.66	1	43.323	0.000	0	0	0	0	0	0	0	0	0	0	0	;
	109	5.143	0.000	0.000	0.000	1.0153	15.70	1	15.700	0.000	0	0	0	0	0	0	0	0	0	0	0	;
	109	0.000	0.000	4.797	-4.797	1.0153	12.92	0	11.992	0.000	0	0	0	0	0	0	0	0	0	0	0	;
	110	10.018	-1.362	6.954	-6.954	1.0228	18.72	1	17.385	0.000	0	0	0	0	0	0	0	0	0	0	0	;
	110	0.000	0.000	3.441	-3.441	1.0228	9.26	0	8.602	0.000	0	0	0	0	0	0	0	0	0	0	0	;
	111	3.758	0.303	2.609	-2.609	1.0215	7.02	1	6.522	0.000	0	0	0	0	0	0	0	0	0	0	0	;
	112	112.202	0.611	77.890	-77.890	1.0201	209.72	1	194.724	0.000	0	0	0	0	0	0	0	0	0	0	0	;
	112	0.000	0.000	13.116	-13.116	1.0201	35.32	0	32.789	0.000	0	0	0	0	0	0	0	0	0	0	0	;
	113	1.030	0.044	0.715	-0.715	1.0261	1.92	1	1.787	0.000	0	0	0	0	0	0	0	0	0	0	0	;
	113	2.195	0.000	0.000	0.000	1.0261	6.70	1	6.700	0.000	0	0	0	0	0	0	0	0	0	0	0	;
	113	0.000	0.000	29.219	-29.219	1.0261	78.67	0	73.047	0.000	0	0	0	0	0	0	0	0	0	0	0	;
	114	15.635	4.060	10.854	-10.854	1.0288	29.22	1	27.134	0.000	0	0	0	0	0	0	0	0	0	0	0	;
	114	3.857	18.456	49.343	-49.343	1.0288	132.86	1	123.357	0.000	0	0	0	0	0	0	0	0	0	0	0	;
	114	4.422	0.000	0.000	0.000	1.0288	13.50	1	13.500	0.000	0	0	0	0	0	0	0	0	0	0	0	;
	114	8.844	3.751	10.028	-10.028	1.0288	27.00	1	25.069	0.000	0	0	0	0	0	0	0	0	0	0	0	;
	114	0.000	0.000	4.945	-4.945	1.0288	13.32	0	12.363	0.000	0	0	0	0	0	0	0	0	0	0	0	;
	115	15.000	0.570	9.000	-7.200	1.0196	20.12	1	18.000	-18.000	0	0	0	0	0	0	0	0	0	0	0	;
	115	15.000	0.570	9.000	-7.200	1.0196	20.12	1	18.000	-18.000	0	0	0	0	0	0	0	0	0	0	0	;
	115	1.244	-0.011	0.863	-0.863	1.0196	2.32	1	2.158	0.000	0	0	0	0	0	0	0	0	0	0	0	;
	115	0.405	-0.068	5.185	-5.185	1.0196	13.96	1	12.962	0.000	0	0	0	0	0	0	0	0	0	0	0	;
	115	3.341	0.000	0.000	0.000	1.0196	10.20	1	10.200	0.000	0	0	0	0	0	0	0	0	0	0	0	;
	116	37.410	13.399	25.969	-25.969	1.0192	69.92	1	64.923	0.000	0	0	0	0	0	0	0	0	0	0	0	;
	116	0.590	0.000	0.000	0.000	1.0192	1.80	1	1.800	0.000	0	0	0	0	0	0	0	0	0	0	0	;
	116	0.000	0.000	4.165	-4.165	1.0192	11.22	0	10.413	0.000	0	0	0	0	0	0	0	0	0	0	0	;
	117	0.709	-0.043	0.492	-0.492	1.0144	1.32	1	1.230	0.000	0	0	0	0	0	0	0	0	0	0	0	;
	117	0.000	0.000	9.402	-9.402	1.0144	25.32	0	23.505	0.000	0	0	0	0	0	0	0	0	0	0	0	;
	118	21.413	6.541	14.865	-14.865	1.0221	40.02	1	37.162	0.000	0	0	0	0	0	0	0	0	0	0	0	;
	118	0.202	1.138	2.585	-2.585	1.0221	6.96	1	6.462	0.000	0	0	0	0	0	0	0	0	0	0	0	;
	118	8.025	0.000	0.000	0.000	1.0221	24.50	1	24.500	0.000	0	0	0	0	0	0	0	0	0	0	0	;
	118	26.040	12.992	29.526	-29.526	1.0221	79.50	1	73.814	0.000	0	0	0	0	0	0	0	0	0	0	0	;
	119	3.491	-0.014	2.423	-2.423	1.0343	6.52	1	6.058	0.000	0	0	0	0	0	0	0	0	0	0	0	;
	119	1.221	-0.088	15.621	-15.621	1.0343	42.06	1	39.052	0.000	0	0	0	0	0	0	0	0	0	0	0	;
	119	0.000	0.000	4.165	-4.165	1.0343	11.22	0	10.413	0.000	0	0	0	0	0	0	0	0	0	0	0	;
	120	15.421	5.398	10.705	-10.705	1.0246	28.82	1	26.763	0.000	0	0	0	0	0	0	0	0	0	0	0	;
	120	1.439	9.281	18.406	-18.406	1.0246	49.56	1	46.015	0.000	0	0	0	0	0	0	0	0	0	0	0	;
	120	6.551	0.000	0.000	0.000	1.0246	20.00	1	20.000	0.000	0	0	0	0	0	0	0	0	0	0	0	;
	120	0.000	0.000	5.057	-5.057	1.0246	13.62	0	12.642	0.000	0	0	0	0	0	0	0	0	0	0	0	;
	121	0.353	1.632	4.516	-4.516	1.0169	12.16	1	11.290	0.000	0	0	0	0	0	0	0	0	0	0	0	;
	121	0.328	0.000	0.000	0.000	1.0169	1.00	1	1.000	0.000	0	0	0	0	0	0	0	0	0	0	0	;
	121	0.000	0.000	12.815	-12.815	1.0169	34.51	0	32.038	0.000	0	0	0	0	0	0	0	0	0	0	0	;
	122	12.104	3.744	8.402	-8.402	1.0342	22.62	1	21.006	0.000	0	0	0	0	0	0	0	0	0	0	0	;
	122	4.330	24.685	55.397	-55.397	1.0342	149.16	1	138.492	0.000	0	0	0	0	0	0	0	0	0	0	0	;
	122	0.000	0.000	3.460	-3.460	1.0342	9.32	0	8.649	0.000	0	0	0	0	0	0	0	0	0	0	0	;
	123	24.463	-1.068	16.982	-16.982	1.0272	45.72	1	42.454	0.000	0	0	0	0	0	0	0	0	0	0	0	;
	123	0.000	0.000	10.479	-10.479	1.0272	28.22	0	26.197	0.000	0	0	0	0	0	0	0	0	0	0	0	;
	124	0.762	0.280	0.529	-0.529	1.0244	1.42	1	1.322	0.000	0	0	0	0	0	0	0	0	0	0	0	;
	124	6.504	44.076	83.214	-83.214	1.0244	224.06	1	208.034	0.000	0	0	0	0	0	0	0	0	0	0	0	;
	124	0.426	0.000	0.000	0.000	1.0244	1.30	1	1.300	0.000	0	0	0	0	0	0	0	0	0	0	0	;
	125	0.661	0.245	8.453	-8.453	1.0207	22.76	1	21.132	0.000	0	0	0	0	0	0	0	0	0	0	0	;
	126	19.915	-1.716	13.825	-13.825	1.0276	37.22	1	34.562	0.000	0	0	0	0	0	0	0	0	0	0	0	;
	126	0.754	-1.197	9.641	-9.641	1.0276	25.96	1	24.103	0.000	0	0	0	0	0	0	0	0	0	0	0	;
	126	0.000	0.000	11.918	-11.918	1.0276	32.09	0	29.795	0.000	0	0	0	0	0	0	0	0	0	0	0	;
	127	1.190	0.176	0.826	-0.826	1.0246	2.22	1	2.065	0.000	0	0	0	0	0	0	0	0	0	0	0	;
	127	9.999	27.225	127.929	-127.929	1.0246	344.46	1	319.823	0.000	0	0	0	0	0	0	0	0	0	0	0	;
	127	15.035	0.000	0.000	0.000	1.0246	45.90	1	45.900	0.000	0	0	0	0	0	0	0	0	0	0	0	;
	127	10.072	2.430	11.420	-11.420	1.0246	30.75	1	28.551	0.000	0	0	0	0	0	0	0	0	0	0	0	;
	127	0.000	0.000	3.441	-3.441	1.0246	9.26	0	8.602	0.000	0	0	0	0	0	0	0	0	0	0	0	;
	128	87.164	35.620	60.509	-60.509	1.0295	162.92	1	151.271	0.000	0	0	0	0	0	0	0	0	0	0	0	;
	128	0.228	1.718	2.919	-2.919	1.0295	7.86	1	7.298	0.000	0	0	0	0	0	0	0	0	0	0	0	;
	128	14.904	0.000	0.000	0.000	1.0295	45.50	1	45.500	0.000	0	0	0	0	0	0	0	0	0	0	0	;
	128	0.000	0.000	4.388	-4.388	1.0295	11.82	0	10.970	0.000	0	0	0	0	0	0	0	0	0	0	0	;
	129	63.000	16.991	37.500	-30.000	1.0248	83.85	1	75.000	37.500	0	0	0	0	0	0	0	0	0	0	0	;
	129	38.854	11.331	26.972	-26.972	1.0248	72.62	1	67.430	0.000	0	0	0	0	0	0	0	0	0	0	0	;
	129	1.163	6.250	14.878	-14.878	1.0248	40.06	1	37.195	0.000	0	0	0	0	0	0	0	0	0	0	0	;
	129	5.994	0.000	0.000	0.000	1.0248	18.30	1	18.300	0.000	0	0	0	0	0	0	0	0	0	0	0	;
	130	5.310	0.722	3.686	-3.686	1.0162	9.92	1	9.215	0.000	0	0	0	0	0	0	0	0	0	0	0	;
	131	45.862	-6.742	31.837	-31.837	1.0277	85.72	1	79.593	0.000	0	0	0	0	0	0	0	0	0	0	0	;
	131	1.871	-5.070	23.940	-23.940	1.0277	64.46	1	59.850	0.000	0	0	0	0	0	0	0	0	0	0	0	;
	131	0.000	0.000	10.219	-10.219	1.0277	27.52	0	25.547	0.000	0	0	0	0	0	0	0	0	0	0	0	;
	132	18.471	3.220	12.822	-12.822	1.0113	34.52	1	32.055	0.000	0	0	0	0	0	0	0	0	0	0	0	;
	132	0.788	2.533	10.087	-10.087	1.0113	27.16	1	25.217	0.000	0	0	0	0	0	0	0	0	0	0	0	;
	132	0.000	0.000	3.441	-3.441	1.0113	9.26	0	8.602	0.000	0	0	0	0	0	0	0	0	0	0	0	;
	133	74.057	24.219	51.409	-51.409	1.0261	138.42	1	128.524	0.000	0	0	0	0	0	0	0	0	0	0	0	;
	133	3.813	22.982	48.786	-48.786	1.0261	131.36	1	121.965	0.000	0	0	0	0	0	0	0	0	0	0	0	;
	133	5.470	0.000	0.000	0.000	1.0261	16.70	1	16.700	0.000	0	0	0	0	0	0	0	0	0	0	0	;
	134	100.004	43.039	69.422	-69.422	1.0241	186.92	1	173.555	0.000	0	0	0	0	0	0	0	0	0	0	0	;
	134	0.000	0.000	3.868	-3.868	1.0241	10.42	0	9.670	0.000	0	0	0	0	0	0	0	0	0	0	0	;
	135	0.117	-0.087	1.495	-1.495	1.0242	4.03	1	3.739	0.000	0	0	0	0	0	0	0	0	0	0	0	;
	136	3.598	-0.085	2.497	-2.497	1.0275	6.72	1	6.243	0.000	0	0	0	0	0	0	0	0	0	0	0	;
	136	0.000	0.000	4.908	-4.908	1.0275	13.22	0	12.270	0.000	0	0	0	0	0	0	0	0	0	0	0	;
	137	15.796	4.757	10.965	-10.965	1.0263	29.52	1	27.413	0.000	0	0	0	0	0	0	0	0	0	0	0	;
	137	1.418	7.872	18.146	-18.146	1.0263	48.86	1	45.365	0.000	0	0	0	0	0	0	0	0	0	0	0	;
	137	1.605	0.000	0.000	0.000	1.0263	4.90	1	4.900	0.000	0	0	0	0	0	0	0	0	0	0	0	;
	138	3.598	0.367	2.497	-2.497	1.0219	6.72	1	6.243	0.000	0	0	0	0	0	0	0	0	0	0	0	;
	138	2.162	0.000	0.000	0.000	1.0219	6.60	1	6.600	0.000	0	0	0	0	0	0	0	0	0	0	0	;
	138	0.000	0.000	5.577	-5.577	1.0219	15.02	0	13.941	0.000	0	0	0	0	0	0	0	0	0	0	0	;
	139	5.363	-0.199	3.723	-3.723	1.0208	10.02	1	9.307	0.000	0	0	0	0	0	0	0	0	0	0	0	;
	139	0.000	0.000	3.441	-3.441	1.0208	9.26	0	8.602	0.000	0	0	0	0	0	0	0	0	0	0	0	;
	140	2.260	0.000	0.000	0.000	1.0145	6.90	1	6.900	0.000	0	0	0	0	0	0	0	0	0	0	0	;
	140	0.000	0.000	40.487	-40.487	1.0145	109.02	0	101.218	0.000	0	0	0	0	0	0	0	0	0	0	0	;
	141	7.236	0.274	5.023	-5.023	1.0186	13.52	1	12.557	0.000	0	0	0	0	0	0	0	0	0	0	0	;
	141	0.000	0.000	3.441	-3.441	1.0186	9.26	0	8.602	0.000	0	0	0	0	0	0	0	0	0	0	0	;
	142	10.713	3.595	7.437	-7.437	1.0258	20.02	1	18.592	0.000	0	0	0	0	0	0	0	0	0	0	0	;
	142	3.418	21.139	43.735	-43.735	1.0258	117.76	1	109.337	0.000	0	0	0	0	0	0	0	0	0	0	0	;
	142	9.040	0.000	0.000	0.000	1.0258	27.60	1	27.600	0.000	0	0	0	0	0	0	0	0	0	0	0	;
	142	0.000	0.000	3.460	-3.460	1.0258	9.32	0	8.649	0.000	0	0	0	0	0	0	0	0	0	0	0	;
	144	1.244	0.189	0.863	-0.863	1.0245	2.32	1	2.158	0.000	0	0	0	0	0	0	0	0	0	0	0	;
	144	3.360	9.414	42.992	-42.992	1.0245	115.76	1	107.480	0.000	0	0	0	0	0	0	0	0	0	0	0	;
	145	216.420	29.523	150.237	-150.237	1.0246	404.52	1	375.591	0.000	0	0	0	0	0	0	0	0	0	0	0	;
	145	0.405	1.019	5.185	-5.185	1.0246	13.96	1	12.962	0.000	0	0	0	0	0	0	0	0	0	0	0	;
	146	0.000	0.000	9.099	-9.099	1.0175	24.50	0	22.747	0.000	0	0	0	0	0	0	0	0	0	0	0	;
	147	3.330	-0.172	2.312	-2.312	1.0263	6.22	1	5.779	0.000	0	0	0	0	0	0	0	0	0	0	0	;
	147	0.000	0.000	4.908	-4.908	1.0263	13.22	0	12.270	0.000	0	0	0	0	0	0	0	0	0	0	0	;
	149	1.297	0.211	0.900	-0.900	1.0203	2.42	1	2.251	0.000	0	0	0	0	0	0	0	0	0	0	0	;
	149	0.000	0.000	8.330	-8.330	1.0203	22.43	0	20.825	0.000	0	0	0	0	0	0	0	0	0	0	0	;
	150	0.000	0.000	4.000	-3.200	1.0125	8.94	0	8.000	4.000	0	0	0	0	0	0	0	0	0	0	0	;
	150	6.000	0.346	4.400	-3.520	1.0125	9.84	1	8.800	4.400	0	0	0	0	0	0	0	0	0	0	0	;
	150	6.000	0.346	4.400	-3.520	1.0125	9.84	1	8.800	4.400	0	0	0	0	0	0	0	0	0	0	0	;
	150	0.000	0.000	4.400	-3.520	1.0125	9.84	0	8.800	4.400	0	0	0	0	0	0	0	0	0	0	0	;
	150	0.000	0.000	4.400	-3.520	1.0125	9.84	0	8.800	4.400	0	0	0	0	0	0	0	0	0	0	0	;
	150	0.000	0.000	4.000	-3.200	1.0125	8.94	0	8.000	4.000	0	0	0	0	0	0	0	0	0	0	0	;
	150	0.000	0.000	12.500	-10.000	1.0125	27.95	0	25.000	12.500	0	0	0	0	0	0	0	0	0	0	0	;
	150	28.850	0.083	20.027	-20.027	1.0125	53.92	1	50.067	0.000	0	0	0	0	0	0	0	0	0	0	0	;
	150	1.944	0.103	24.868	-24.868	1.0125	66.96	1	62.171	0.000	0	0	0	0	0	0	0	0	0	0	0	;
	150	1.834	0.000	0.000	0.000	1.0125	5.60	1	5.600	0.000	0	0	0	0	0	0	0	0	0	0	0	;
	150	0.000	0.000	12.336	-12.336	1.0125	33.22	0	30.840	0.000	0	0	0	0	0	0	0	0	0	0	0	;
	151	15.154	5.601	10.519	-10.519	1.0209	28.32	1	26.298	0.000	0	0	0	0	0	0	0	0	0	0	0	;
	151	3.669	0.000	0.000	0.000	1.0209	11.20	1	11.200	0.000	0	0	0	0	0	0	0	0	0	0	0	;
	151	0.000	0.000	3.441	-3.441	1.0209	9.26	0	8.602	0.000	0	0	0	0	0	0	0	0	0	0	0	;
	152	14.351	-0.268	9.962	-9.962	1.0189	26.82	1	24.906	0.000	0	0	0	0	0	0	0	0	0	0	0	;
	152	2.980	-1.025	38.127	-38.127	1.0189	102.66	1	95.317	0.000	0	0	0	0	0	0	0	0	0	0	0	;
	152	8.778	0.000	0.000	0.000	1.0189	26.80	1	26.800	0.000	0	0	0	0	0	0	0	0	0	0	0	;
	152	10.809	-0.329	12.256	-12.256	1.0189	33.00	1	30.640	0.000	0	0	0	0	0	0	0	0	0	0	0	;
	152	0.000	0.000	3.460	-3.460	1.0189	9.32	0	8.649	0.000	0	0	0	0	0	0	0	0	0	0	0	;
	153	0.289	0.135	3.699	-3.699	1.0275	9.96	1	9.248	0.000	0	0	0	0	0	0	0	0	0	0	0	;
	153	0.000	0.000	3.460	-3.460	1.0275	9.32	0	8.649	0.000	0	0	0	0	0	0	0	0	0	0	0	;
	154	2.902	0.063	2.015	-2.015	1.0168	5.42	1	5.036	0.000	0	0	0	0	0	0	0	0	0	0	0	;
	154	0.000	0.000	4.054	-4.054	1.0168	10.92	0	10.135	0.000	0	0	0	0	0	0	0	0	0	0	0	;
	155	0.000	0.000	20.000	-16.000	1.0313	44.72	0	40.000	20.000	0	0	0	0	0	0	0	0	0	0	0	;
	155	0.869	0.204	0.603	-0.603	1.0313	1.62	1	1.508	0.000	0	0	0	0	0	0	0	0	0	0	0	;
	155	7.656	33.110	97.958	-97.958	1.0313	263.76	1	244.895	0.000	0	0	0	0	0	0	0	0	0	0	0	;
	155	6.617	0.000	0.000	0.000	1.0313	20.20	1	20.200	0.000	0	0	0	0	0	0	0	0	0	0	0	;
	156	6.864	14.213	87.819	-87.819	1.0255	236.46	1	219.548	0.000	0	0	0	0	0	0	0	0	0	0	0	;
	156	3.177	0.000	0.000	0.000	1.0255	9.70	1	9.700	0.000	0	0	0	0	0	0	0	0	0	0	0	;
	157	10.232	1.928	7.103	-7.103	1.0168	19.12	1	17.757	0.000	0	0	0	0	0	0	0	0	0	0	0	;
	158	2.207	0.619	1.532	-1.532	1.0277	4.12	1	3.829	0.000	0	0	0	0	0	0	0	0	0	0	0	;
	158	1.982	10.250	25.351	-25.351	1.0277	68.26	1	63.378	0.000	0	0	0	0	0	0	0	0	0	0	0	;
	158	0.000	0.000	3.441	-3.441	1.0277	9.26	0	8.602	0.000	0	0	0	0	0	0	0	0	0	0	0	;
	159	4.507	1.967	3.129	-3.129	1.0294	8.42	1	7.822	0.000	0	0	0	0	0	0	0	0	0	0	0	;
	159	5.029	40.451	64.347	-64.347	1.0294	173.26	1	160.868	0.000	0	0	0	0	0	0	0	0	0	0	0	;
	159	0.884	0.000	0.000	0.000	1.0294	2.70	1	2.700	0.000	0	0	0	0	0	0	0	0	0	0	0	;
	159	0.000	0.000	2.819	-2.819	1.0294	7.59	0	7.048	0.000	0	0	0	0	0	0	0	0	0	0	0	;
	160	14.779	1.794	10.259	-10.259	1.0319	27.62	1	25.649	0.000	0	0	0	0	0	0	0	0	0	0	0	;
	160	5.761	12.890	73.706	-73.706	1.0319	198.46	1	184.265	0.000	0	0	0	0	0	0	0	0	0	0	0	;
	160	18.114	0.000	0.000	0.000	1.0319	55.30	1	55.300	0.000	0	0	0	0	0	0	0	0	0	0	0	;
	161	6.655	15.606	85.145	-85.145	1.0210	229.26	1	212.863	0.000	0	0	0	0	0	0	0	0	0	0	0	;
	162	32.113	7.998	22.292	-22.292	1.0135	60.02	1	55.731	0.000	0	0	0	0	0	0	0	0	0	0	0	;
	162	1.392	6.391	17.812	-17.812	1.0135	47.96	1	44.530	0.000	0	0	0	0	0	0	0	0	0	0	0	;
	162	1.048	0.000	0.000	0.000	1.0135	3.20	1	3.200	0.000	0	0	0	0	0	0	0	0	0	0	0	;
	163	6.429	7.682	82.248	-82.248	1.0234	221.46	1	205.620	0.000	0	0	0	0	0	0	0	0	0	0	0	;
	163	2.358	0.000	0.000	0.000	1.0234	7.20	1	7.200	0.000	0	0	0	0	0	0	0	0	0	0	0	;
	164	4.422	0.000	0.000	0.000	1.0258	13.50	1	13.500	0.000	0	0	0	0	0	0	0	0	0	0	0	;
	164	0.000	0.000	29.475	-29.475	1.0258	79.36	0	73.687	0.000	0	0	0	0	0	0	0	0	0	0	0	;
	165	2.330	4.621	29.808	-29.808	1.0073	80.26	1	74.520	0.000	0	0	0	0	0	0	0	0	0	0	0	;
	165	6.911	0.000	0.000	0.000	1.0073	21.10	1	21.100	0.000	0	0	0	0	0	0	0	0	0	0	0	;
	166	10.927	1.563	7.585	-7.585	1.0240	20.42	1	18.964	0.000	0	0	0	0	0	0	0	0	0	0	0	;
	166	6.966	18.364	89.119	-89.119	1.0240	239.96	1	222.797	0.000	0	0	0	0	0	0	0	0	0	0	0	;
	166	0.000	0.000	3.497	-3.497	1.0240	9.42	0	8.742	0.000	0	0	0	0	0	0	0	0	0	0	0	;
	167	1.190	-0.059	0.826	-0.826	1.0080	2.22	1	2.065	0.000	0	0	0	0	0	0	0	0	0	0	0	;
	167	3.543	-3.210	45.332	-45.332	1.0080	122.06	1	113.330	0.000	0	0	0	0	0	0	0	0	0	0	0	;
	167	12.218	0.000	0.000	0.000	1.0080	37.30	1	37.300	0.000	0	0	0	0	0	0	0	0	0	0	0	;
	168	3.170	-0.260	2.200	-2.200	1.0264	5.92	1	5.501	0.000	0	0	0	0	0	0	0	0	0	0	0	;
	168	0.000	0.000	3.441	-3.441	1.0264	9.26	0	8.602	0.000	0	0	0	0	0	0	0	0	0	0	0	;
	169	4.594	34.624	58.776	-58.776	1.0269	158.26	1	146.941	0.000	0	0	0	0	0	0	0	0	0	0	0	;
	169	0.000	0.000	4.229	-4.229	1.0269	11.39	0	10.573	0.000	0	0	0	0	0	0	0	0	0	0	0	;
	170	2.870	19.495	36.716	-36.716	1.0198	98.86	1	91.789	0.000	0	0	0	0	0	0	0	0	0	0	0	;
	170	1.310	0.000	0.000	0.000	1.0198	4.00	1	4.000	0.000	0	0	0	0	0	0	0	0	0	0	0	;
	171	0.347	0.000	0.000	0.000	1.0254	1.06	1	1.060	0.000	0	0	0	0	0	0	0	0	0	0	0	;
	171	0.000	0.000	7.879	-7.879	1.0254	21.22	0	19.698	0.000	0	0	0	0	0	0	0	0	0	0	0	;
	172	1.720	1.053	22.009	-22.009	1.0074	59.26	1	55.022	0.000	0	0	0	0	0	0	0	0	0	0	0	;
...
];

%% gen tags 
% Generation Technology Type:
%  CWS (Connection with Spain),
%  FOG (Fossil Gas),
%  FHC (Fossil Hard Coal),
%  HWR (Hydro Water Reservoir),
%  HPS (Hydro Pumped Storage),
%  HRP (Hydro Run-of-river and poundage),
%  SH1 (Small Hydro - P ≤ 10 MW),
%  SH3 (Small Hydro - 10 MW < P ≤ 30 MW),
%  PVP (Photovoltaic power plant),
%  WON (Wind onshore),
%  WOF (Wind offshore),
%  MAR (Marine),
%  OTH (Other thermal, such as geothermal, biomass, biogas, Municipal solid waste and CHP renewable and non-renewable)
%	genType
mpc.gen_tags = {
	'CWS';	'CWS';	'CWS';	'CWS';	'CWS';	'CWS';	'CWS';	'CWS';	'PVP';	'PVP';	'PVP';	'PVP';	'PVP';	'PVP';	'HWR';	'HWR';	'PVP';	'HRP';	'HRP';	'HRP';	'PVP';	'WON';	'WON';	'PVP';	'PVP';	'WON';	'SH3';	'HRP';	'HRP';	'OTH';	'WON';	'SH1';	'PVP';	'OTH';	'PVP';	'OTH';	'OTH';	'PVP';	'OTH';	'SH1';	'PVP';	'OTH';	'WON';	'SH1';	'SH3';	'PVP';	'HPS';	'HPS';	'OTH';	'WON';	'SH1';	'OTH';	'SH1';	'PVP';	'OTH';	'PVP';	'OTH';	'WON';	'SH1';	'SH3';	'OTH';	'WON';	'PVP';	'OTH';	'WON';	'SH1';	'PVP';	'WON';	'SH1';	'PVP';	'OTH';	'WON';	'PVP';	'OTH';	'PVP';	'OTH';	'WON';	'SH1';	'WON';	'OTH';	'WON';	'PVP';	'OTH';	'WON';	'SH1';	'SH3';	'PVP';	'OTH';	'WON';	'SH1';	'PVP';	'HWR';	'OTH';	'WON';	'SH1';	'OTH';	'OTH';	'WON';	'PVP';	'OTH';	'WON';	'PVP';	'OTH';	'WON';	'SH1';	'OTH';	'PVP';	'WON';	'OTH';	'PVP';	'OTH';	'WON';	'SH1';	'OTH';	'SH1';	'PVP';	'OTH';	'PVP';	'SH1';	'PVP';	'OTH';	'PVP';	'OTH';	'WON';	'SH1';	'PVP';	'OTH';	'WON';	'OTH';	'WON';	'PVP';	'OTH';	'PVP';	'OTH';	'PVP';	'HWR';	'HRP';	'HRP';	'HRP';	'HRP';	'HWR';	'HWR';	'OTH';	'WON';	'SH1';	'PVP';	'OTH';	'SH1';	'PVP';	'OTH';	'WON';	'SH1';	'SH3';	'PVP';	'WON';	'PVP';	'OTH';	'PVP';	'HWR';	'OTH';	'WON';	'SH1';	'WON';	'SH1';	'OTH';	'OTH';	'WON';	'PVP';	'OTH';	'WON';	'SH1';	'PVP';	'OTH';	'WON';	'SH1';	'WON';	'OTH';	'WON';	'SH1';	'WON';	'SH1';	'SH1';	'PVP';	'WON';	'SH1';	'OTH';	'WON';	'PVP';	'OTH';	'WON';	'SH1';	'OTH';	'PVP';	'WON';	'PVP';	'WON';	'SH1';	'SH1';	'PVP';	'WON';	'SH1';	'HWR';	'HWR';	'HWR';	'HWR';	'HWR';	'HWR';	'HWR';	'HWR';	'HWR';	'HWR';	'HPS';	'HPS';	'HWR';	'HWR';	'HWR';	'HPS';	'HRP';	'HRP';	'HRP';	'HPS';	'HPS';	'HWR';	'HWR';	'HWR';	'HRP';	'HRP';	'HRP';	'HRP';	'HRP';	'HRP';	'HRP';	'HRP';	'HRP';	'HRP';	'HPS';	'HPS';	'HPS';	'HRP';	'HRP';	'HRP';	'HPS';	'HPS';	'HRP';	'HRP';	'HRP';	'HRP';	'HRP';	'HRP';	'HRP';	'HRP';	'HRP';	'FOG';	'HRP';	'HPS';	'HPS';	'HPS';	'HPS';	'HPS';	'HPS';	'HPS';	'HPS';	'HPS';	'HWR';	'HWR';	'FOG';	'FOG';	'FOG';	'FOG';	'FOG';	'FOG';	'OTH';	'WON';	'WON';	'WON';	'WON';	'OTH';	'WON';	'WON';	'WON';	'WON';	'WON';	'WON';	'WON';	'HRP';	'HRP';	'HRP';	'WOF';	'MAR';	'PVP';	'HPS';	'HPS';	'PVP';	'PVP';	'PVP';	'PVP';	'HWR';	'HWR';	'HPS';	'HPS';	'HPS';	'HPS';	'HWR';	'HWR';	'WON';	'PVP';	'PVP';
};

%% branch data
% If the 'step_size', 'actTap', 'minTap', 'maxTap' and 'normalTap' fields are equal to "-1", it means that the transformer does not have tap changing capability
% If the length is equal to "0", it means that the correspondent branch represents a transformer
%	fbus	tbus	r	x	b	rateA (summer)	rateB (spring)	rateC (winter)	tap ratio	shift angle		status	angmin	angmax	step_size	actTap	minTap	maxTap	normalTap	length (km)
mpc.branch = [
	8	24	0.02945	0.09879	0.03302	91	123	130	0	0	0	-360	360	0	0	0	0	0	54.0	;
	8	176	0.02007	0.06867	0.02205	96	104	104	0	0	1	-360	360	0	0	0	0	0	36.6	;
	8	176	0.02014	0.06872	0.02229	96	104	104	0	0	1	-360	360	0	0	0	0	0	36.7	;
	9	14	0.00146	0.00787	0.00265	255	260	260	0	0	1	-360	360	0	0	0	0	0	4.3	;
	9	14	0.00146	0.00769	0.00260	255	260	260	0	0	1	-360	360	0	0	0	0	0	4.2	;
	9	14	0.00137	0.00737	0.00250	124	162	203	0	0	1	-360	360	0	0	0	0	0	4.1	;
	10	19	0.02098	0.11168	0.03801	218	248	260	0	0	1	-360	360	0	0	0	0	0	61.3	;
	10	22	0.02445	0.08166	0.02747	164	186	206	0	0	1	-360	360	0	0	0	0	0	44.5	;
	10	26	0.00777	0.04761	0.01640	260	260	260	0	0	1	-360	360	0	0	0	0	0	26.0	;
	11	14	0.02030	0.07019	0.02214	171	186	206	0	0	1	-360	360	0	0	0	0	0	36.7	;
	11	14	0.02010	0.06862	0.02204	191	204	222	0	0	1	-360	360	0	0	0	0	0	36.5	;
	12	22	0.02823	0.10553	0.04049	189	204	222	0	0	1	-360	360	0	0	0	0	0	61.6	;
	12	23	0.01953	0.08771	0.03214	195	204	222	0	0	1	-360	360	0	0	0	0	0	49.8	;
	12	29	0.01515	0.04945	0.01745	195	204	222	0	0	1	-360	360	0	0	0	0	0	27.9	;
	12	29	0.01515	0.04945	0.01745	195	204	222	0	0	1	-360	360	0	0	0	0	0	27.9	;
	12	29	0.00551	0.05765	0.03609	260	260	260	0	0	1	-360	360	0	0	0	0	0	42.8	;
	12	34	0.02334	0.12013	0.04435	255	260	260	0	0	1	-360	360	0	0	0	0	0	68.7	;
	13	14	0.00788	0.04049	0.01506	255	260	260	0	0	1	-360	360	0	0	0	0	0	23.1	;
	13	14	0.00788	0.04049	0.01506	255	260	260	0	0	1	-360	360	0	0	0	0	0	23.1	;
	13	20	0.00745	0.02441	0.00855	195	204	221	0	0	1	-360	360	0	0	0	0	0	13.6	;
	13	20	0.00745	0.02441	0.00855	195	204	221	0	0	1	-360	360	0	0	0	0	0	13.6	;
	13	20	0.00745	0.02441	0.00855	195	204	221	0	0	1	-360	360	0	0	0	0	0	13.6	;
	13	20	0.00745	0.02441	0.00855	195	204	221	0	0	1	-360	360	0	0	0	0	0	13.6	;
	13	180	0.00411	0.02110	0.00788	255	260	260	0	0	1	-360	360	0	0	0	0	0	12.0	;
	13	246	0.00422	0.02163	0.00811	260	260	260	0	0	1	-360	360	0	0	0	0	0	12.2	;
	14	180	0.00411	0.02110	0.00788	255	260	260	0	0	1	-360	360	0	0	0	0	0	12.0	;
	14	185	0.01114	0.03788	0.01266	191	204	222	0	0	1	-360	360	0	0	0	0	0	20.5	;
	14	186	0.02662	0.09054	0.02905	185	204	222	0	0	1	-360	360	0	0	0	0	0	48.4	;
	14	246	0.00408	0.02092	0.00779	255	260	260	0	0	1	-360	360	0	0	0	0	0	12.0	;
	15	22	0.02154	0.10932	0.04126	224	248	260	0	0	1	-360	360	0	0	0	0	0	63.4	;
	15	22	0.02154	0.10932	0.04126	224	248	260	0	0	1	-360	360	0	0	0	0	0	63.4	;
	15	26	0.00974	0.05968	0.02055	260	260	260	0	0	1	-360	360	0	0	0	0	0	32.6	;
	15	27	0.02701	0.09576	0.03037	191	204	222	0	0	1	-360	360	0	0	0	0	0	50.5	;
	15	28	0.03335	0.10915	0.03827	195	204	222	0	0	1	-360	360	0	0	0	0	0	60.7	;
	15	29	0.05251	0.17172	0.06032	195	204	222	0	0	1	-360	360	0	0	0	0	0	95.6	;
	15	250	0.00184	0.00954	0.00342	130	130	130	0	0	1	-360	360	0	0	0	0	0	5.4	;
	15	250	0.00187	0.00974	0.00349	130	130	130	0	0	1	-360	360	0	0	0	0	0	5.5	;
	15	255	0.00282	0.01157	0.02727	260	273	296	0	0	1	-360	360	0	0	0	0	0	5.9	;
	16	178	0.00839	0.03586	0.01167	104	123	130	0	0	1	-360	360	0	0	0	0	0	19.0	;
	17	21	0.01658	0.06789	0.02323	195	204	222	0	0	1	-360	360	0	0	0	0	0	37.9	;
	17	21	0.00900	0.05720	0.02480	260	273	296	0	0	1	-360	360	0	0	0	0	0	35.0	;
	17	25	0.01638	0.06453	0.02191	104	123	153	0	0	1	-360	360	0	0	0	0	0	35.2	;
	17	184	0.01106	0.03018	0.01032	91	108	134	0	0	1	-360	360	0	0	0	0	0	16.6	;
	18	287	0.00156	0.01068	0.00498	260	273	296	0	0	0	-360	360	0	0	0	0	0	6.8	;
	18	288	0.00151	0.01038	0.00484	260	273	296	0	0	1	-360	360	0	0	0	0	0	6.6	;
	18	306	0.00548	0.02813	0.01051	255	260	260	0	0	1	-360	360	0	0	0	0	0	16.0	;
	18	307	0.00480	0.02461	0.00920	255	260	260	0	0	1	-360	360	0	0	0	0	0	14.0	;
	19	186	0.02662	0.09054	0.02905	185	204	222	0	0	1	-360	360	0	0	0	0	0	48.4	;
	21	30	0.01441	0.06067	0.02080	195	204	222	0	0	1	-360	360	0	0	0	0	0	33.3	;
	21	32	0.00720	0.04579	0.01985	260	273	296	0	0	1	-360	360	0	0	0	0	0	28.0	;
	21	32	0.00720	0.04579	0.01985	260	273	296	0	0	1	-360	360	0	0	0	0	0	28.0	;
	21	251	0.00610	0.04180	0.01950	260	273	296	0	0	1	-360	360	0	0	0	0	0	26.5	;
	22	34	0.01325	0.06238	0.06238	337	372	411	0	0	1	-360	360	0	0	0	0	0	57.9	;
	22	245	0.01212	0.04116	0.01324	81	123	130	0	0	1	-360	360	0	0	0	0	0	22.0	;
	23	34	0.01185	0.06135	0.02247	255	260	260	0	0	1	-360	360	0	0	0	0	0	35.1	;
	23	34	0.01185	0.06135	0.02247	255	260	260	0	0	1	-360	360	0	0	0	0	0	35.1	;
	23	34	0.01580	0.07475	0.02730	255	260	260	0	0	1	-360	360	0	0	0	0	0	42.7	;
	24	31	0.00310	0.03271	0.07540	520	520	520	0	0	1	-360	360	0	0	0	0	0	46.5	;
	24	181	0.00436	0.01464	0.00484	189	195	195	0	0	1	-360	360	0	0	0	0	0	7.8	;
	24	248	0.00715	0.03705	0.01350	227	248	381	0	0	1	-360	360	0	0	0	0	0	20.8	;
	24	248	0.00715	0.03705	0.01350	227	248	381	0	0	1	-360	360	0	0	0	0	0	20.8	;
	24	252	0.01240	0.06509	0.02314	253	260	260	0	0	1	-360	360	0	0	0	0	0	36.3	;
	25	32	0.01065	0.03476	0.01219	195	204	222	0	0	1	-360	360	0	0	0	0	0	19.3	;
	25	32	0.01069	0.03488	0.01223	195	204	222	0	0	1	-360	360	0	0	0	0	0	19.3	;
	25	32	0.00504	0.02690	0.01516	233	248	260	0	0	1	-360	360	0	0	0	0	0	18.0	;
	25	307	0.00582	0.01853	0.00675	104	123	153	0	0	1	-360	360	0	0	0	0	0	10.6	;
	25	307	0.00581	0.01846	0.00677	104	123	153	0	0	1	-360	360	0	0	0	0	0	10.6	;
	27	185	0.01114	0.03788	0.01266	191	204	222	0	0	1	-360	360	0	0	0	0	0	20.5	;
	28	29	0.01921	0.06275	0.02210	195	204	222	0	0	1	-360	360	0	0	0	0	0	35.2	;
	30	32	0.00729	0.02383	0.00834	195	204	222	0	0	1	-360	360	0	0	0	0	0	13.2	;
	30	32	0.00729	0.02383	0.00834	195	204	222	0	0	1	-360	360	0	0	0	0	0	13.2	;
	30	32	0.00732	0.02829	0.00946	195	204	222	0	0	1	-360	360	0	0	0	0	0	15.4	;
	30	33	0.00260	0.02724	0.01640	520	520	520	0	0	1	-360	360	0	0	0	0	0	19.8	;
	30	174	0.00358	0.02407	0.00900	260	260	260	0	0	1	-360	360	0	0	0	0	0	13.8	;
	30	179	0.00403	0.01370	0.00440	104	123	153	0	0	1	-360	360	0	0	0	0	0	7.3	;
	30	184	0.01106	0.03018	0.01032	91	108	134	0	0	1	-360	360	0	0	0	0	0	16.6	;
	31	248	0.00715	0.03705	0.01350	227	248	381	0	0	1	-360	360	0	0	0	0	0	20.8	;
	31	248	0.00715	0.03705	0.01350	227	248	381	0	0	1	-360	360	0	0	0	0	0	20.8	;
	31	253	0.01091	0.05722	0.02036	253	260	260	0	0	1	-360	360	0	0	0	0	0	31.9	;
	32	33	0.00695	0.04818	0.02461	504	520	520	0	0	1	-360	360	0	0	0	0	0	32.2	;
	32	254	0.01869	0.10188	0.03320	260	273	296	0	0	1	-360	360	0	0	0	0	0	53.5	;
	32	254	0.01869	0.10188	0.03320	260	273	296	0	0	1	-360	360	0	0	0	0	0	53.5	;
	32	306	0.01351	0.04810	0.01561	195	204	222	0	0	1	-360	360	0	0	0	0	0	25.7	;
	33	173	0.00082	0.00526	0.00200	306	321	348	0	0	1	-360	360	0	0	0	0	0	3.0	;
	33	177	0.00830	0.02880	0.00938	104	104	104	0	0	1	-360	360	0	0	0	0	0	15.3	;
	33	182	0.00023	0.00161	0.00056	306	321	348	0	0	1	-360	360	0	0	0	0	0	0.9	;
	33	184	0.00504	0.03382	0.01267	274	291	322	0	0	1	-360	360	0	0	0	0	0	19.3	;
	36	64	0.00418	0.02292	0.13770	999	1092	1206	0	0	1	-360	360	0	0	0	0	0	52.3	;
	36	71	0.00396	0.02133	0.13035	999	1092	1206	0	0	1	-360	360	0	0	0	0	0	48.9	;
	36	187	0.00011	0.00060	0.00094	191	191	191	0	0	1	-360	360	0	0	0	0	0	0.7	;
	36	188	0.00018	0.00061	0.00092	191	191	191	0	0	1	-360	360	0	0	0	0	0	0.7	;
	36	189	0.00018	0.00061	0.00092	191	191	191	0	0	1	-360	360	0	0	0	0	0	0.8	;
	37	59	0.00168	0.00382	0.35975	493	493	493	0	0	1	-360	360	0	0	0	0	0	10.4	;
	37	213	0.00017	0.00044	0.04927	322	322	322	0	0	1	-360	360	0	0	0	0	0	1.8	;
	37	214	0.00017	0.00044	0.04927	322	322	322	0	0	1	-360	360	0	0	0	0	0	1.8	;
	37	215	0.00017	0.00044	0.04927	322	322	322	0	0	1	-360	360	0	0	0	0	0	1.8	;
	37	216	0.00017	0.00044	0.04927	322	322	322	0	0	1	-360	360	0	0	0	0	0	1.8	;
	38	208	0.00048	0.00109	0.10268	493	493	493	0	0	1	-360	360	0	0	0	0	0	3.2	;
	38	209	0.00048	0.00108	0.10056	493	493	493	0	0	1	-360	360	0	0	0	0	0	3.2	;
	39	45	0.01696	0.09185	0.14133	381	381	381	0	0	1	-360	360	0	0	0	0	0	106.8	;
	39	69	0.00691	0.03721	0.05799	513	546	571.5	0	0	1	-360	360	0	0	0	0	0	43.0	;
	39	69	0.00687	0.03725	0.05671	381	381	381	0	0	1	-360	360	0	0	0	0	0	43.0	;
	39	71	0.00183	0.01006	0.05957	1026	1090.5	1143	0	0	1	-360	360	0	0	0	0	0	22.2	;
	39	78	0.00658	0.03647	0.05332	382	400	435	0	0	1	-360	360	0	0	0	0	0	41.1	;
	39	195	0.00484	0.02634	0.04046	199	237	297	0	0	1	-360	360	0	0	0	0	0	30.4	;
	39	199	0.00873	0.04861	0.07070	381	381	381	0	0	1	-360	360	0	0	0	0	0	54.7	;
	39	258	0.00326	0.01810	0.02629	382	400	435	0	0	1	-360	360	0	0	0	0	0	20.3	;
	39	258	0.00240	0.01307	0.02007	199	237	297	0	0	1	-360	360	0	0	0	0	0	15.1	;
	40	51	0.00874	0.04843	0.07272	374	400	435	0	0	1	-360	360	0	0	0	0	0	54.7	;
	40	65	0.00985	0.05518	0.07982	499.5	546	571.5	0	0	1	-360	360	0	0	0	0	0	61.9	;
	40	65	0.00944	0.05439	0.07975	499.5	546	571.5	0	0	1	-360	360	0	0	0	0	0	61.8	;
	40	196	0.00017	0.00091	0.00135	182	237	297	0	0	1	-360	360	0	0	0	0	0	1.0	;
	40	198	0.00214	0.01565	0.02877	439	471	511	0	0	1	-360	360	0	0	0	0	0	19.6	;
	40	5	0.00630	0.03584	0.05497	374	400	435	0	0	1	-360	360	0	0	0	0	0	41.1	;
	40	5	0.00636	0.03628	0.05564	374	400	435	0	0	1	-360	360	0	0	0	0	0	41.4	;
	40	6	0.00481	0.02670	0.03939	360	390	430	0	0	1	-360	360	0	0	0	0	0	30.2	;
	41	53	0.00145	0.00845	0.01465	381	381	381	0	0	1	-360	360	0	0	0	0	0	10.4	;
	41	53	0.00078	0.00546	0.00902	381	381	381	0	0	1	-360	360	0	0	0	0	0	6.5	;
	41	57	0.00318	0.01660	0.02798	381	381	381	0	0	1	-360	360	0	0	0	0	0	20.2	;
	41	68	0.00084	0.00572	0.00995	401	426	472	0	0	1	-360	360	0	0	0	0	0	7.0	;
	41	68	0.00170	0.00386	0.36133	493	493	493	0	0	1	-360	360	0	0	0	0	0	10.7	;
	41	210	0.00056	0.00586	0.01715	762	762	762	0	0	1	-360	360	0	0	0	0	0	9.4	;
	41	211	0.00221	0.02313	0.06702	762	762	762	0	0	1	-360	360	0	0	0	0	0	37.0	;
	41	308	0.00006	0.00025	0.01708	240	240	240	0	0	1	-360	360	0	0	0	0	0	0.7	;
	42	78	0.00448	0.02493	0.03617	382	400	435	0	0	1	-360	360	0	0	0	0	0	28.0	;
	42	78	0.00448	0.02494	0.03619	382	400	435	0	0	1	-360	360	0	0	0	0	0	28.0	;
	42	257	0.00276	0.01543	0.02230	381	381	381	0	0	1	-360	360	0	0	0	0	0	17.3	;
	42	257	0.00274	0.01524	0.02237	381	381	381	0	0	1	-360	360	0	0	0	0	0	17.3	;
	43	58	0.00210	0.00476	0.44633	493	493	493	0	0	1	-360	360	0	0	0	0	0	12.6	;
	43	76	0.00113	0.00321	0.34652	446	446	446	0	0	1	-360	360	0	0	0	0	0	11.1	;
	43	76	0.00113	0.00320	0.34511	446	446	446	0	0	1	-360	360	0	0	0	0	0	11.1	;
	43	204	0.00146	0.00771	0.01235	381	381	381	0	0	1	-360	360	0	0	0	0	0	9.2	;
	43	205	0.00063	0.00332	0.00533	381	381	381	0	0	1	-360	360	0	0	0	0	0	3.9	;
	43	219	0.00083	0.00445	0.00676	342	364	381	0	0	1	-360	360	0	0	0	0	0	5.4	;
	44	48	0.00396	0.02139	0.03311	342	364	381	0	0	1	-360	360	0	0	0	0	0	24.9	;
	44	66	0.00779	0.04029	0.06834	381	381	381	0	0	1	-360	360	0	0	0	0	0	50.9	;
	44	66	0.00311	0.03080	0.09461	897	941	1021	0	0	1	-360	360	0	0	0	0	0	50.7	;
	44	193	0.00504	0.02686	0.04234	381	381	381	0	0	1	-360	360	0	0	0	0	0	31.7	;
	45	46	0.00650	0.03510	0.05270	382	400	435	0	0	1	-360	360	0	0	0	0	0	40.2	;
	45	46	0.00608	0.03139	0.05420	382	400	435	0	0	1	-360	360	0	0	0	0	0	38.8	;
	45	46	0.00614	0.03155	0.05417	382	400	435	0	0	1	-360	360	0	0	0	0	0	38.8	;
	45	74	0.00586	0.03263	0.04775	381	381	381	0	0	1	-360	360	0	0	0	0	0	36.7	;
	45	74	0.00586	0.03263	0.04775	381	381	381	0	0	1	-360	360	0	0	0	0	0	36.7	;
	45	199	0.00873	0.04861	0.07070	381	381	381	0	0	1	-360	360	0	0	0	0	0	54.7	;
	46	50	0.00409	0.02221	0.03328	381	400	435	0	0	1	-360	360	0	0	0	0	0	25.4	;
	46	64	0.00275	0.01510	0.09065	666	728	804	0	0	1	-360	360	0	0	0	0	0	34.8	;
	46	214	0.00477	0.02559	0.04001	381	381	381	0	0	1	-360	360	0	0	0	0	0	30.0	;
	46	216	0.00465	0.02524	0.03797	382	400	435	0	0	1	-360	360	0	0	0	0	0	28.9	;
	46	222	0.00006	0.00021	0.02068	438	438	438	0	0	1	-360	360	0	0	0	0	0	0.8	;
	46	260	0.00913	0.04888	0.07531	342	364	381	0	0	1	-360	360	0	0	0	0	0	56.8	;
	47	57	0.01028	0.05388	0.08954	381	381	381	0	0	1	-360	360	0	0	0	0	0	65.0	;
	47	61	0.00034	0.00182	0.00285	199	237	297	0	0	1	-360	360	0	0	0	0	0	2.1	;
	47	66	0.00525	0.02886	0.04430	381	381	381	0	0	1	-360	360	0	0	0	0	0	33.4	;
	47	67	0.00789	0.04153	0.06856	381	381	381	0	0	1	-360	360	0	0	0	0	0	50.0	;
	47	75	0.00724	0.03931	0.05957	382	400	435	0	0	1	-360	360	0	0	0	0	0	45.0	;
	47	211	0.00221	0.02313	0.06702	762	762	762	0	0	1	-360	360	0	0	0	0	0	37.0	;
	47	224	0.00039	0.00426	0.01070	750	762	762	0	0	1	-360	360	0	0	0	0	0	6.4	;
	48	66	0.01101	0.05739	0.09535	381	381	381	0	0	1	-360	360	0	0	0	0	0	69.5	;
	48	69	0.00352	0.01887	0.02971	513	546	571.5	0	0	1	-360	360	0	0	0	0	0	22.6	;
	48	69	0.00350	0.01889	0.02900	381	381	381	0	0	1	-360	360	0	0	0	0	0	22.0	;
	49	57	0.00169	0.00872	0.05960	381	381	381	0	0	1	-360	360	0	0	0	0	0	21.4	;
	49	193	0.00037	0.00490	0.01932	1200	1200	1200	0	0	1	-360	360	0	0	0	0	0	9.2	;
	49	221	0.00055	0.00728	0.02882	762	762	762	0	0	1	-360	360	0	0	0	0	0	13.7	;
	50	55	0.00311	0.01663	0.02615	381	381	381	0	0	1	-360	360	0	0	0	0	0	19.5	;
	50	55	0.00252	0.01377	0.02062	381	381	381	0	0	1	-360	360	0	0	0	0	0	15.8	;
	50	56	0.00162	0.01419	0.06090	762	762	762	0	0	1	-360	360	0	0	0	0	0	27.0	;
	50	204	0.00146	0.00771	0.01235	381	381	381	0	0	1	-360	360	0	0	0	0	0	9.2	;
	50	213	0.00210	0.01087	0.01848	381	381	381	0	0	1	-360	360	0	0	0	0	0	13.3	;
	50	215	0.00316	0.01718	0.02582	382	400	435	0	0	1	-360	360	0	0	0	0	0	19.7	;
	50	217	0.00182	0.00952	0.01558	382	400	435	0	0	1	-360	360	0	0	0	0	0	11.3	;
	51	66	0.00711	0.03753	0.06399	382	400	435	0	0	1	-360	360	0	0	0	0	0	45.9	;
	51	66	0.00712	0.03759	0.06408	382	400	435	0	0	1	-360	360	0	0	0	0	0	46.0	;
	51	194	0.00465	0.02422	0.04046	382	400	435	0	0	1	-360	360	0	0	0	0	0	29.4	;
	51	194	0.00466	0.02427	0.04055	382	400	435	0	0	1	-360	360	0	0	0	0	0	29.5	;
	51	224	0.00039	0.00426	0.01070	750	762	762	0	0	0	-360	360	0	0	0	0	0	6.4	;
	52	199	0.00057	0.00311	0.00469	191	191	191	0	0	1	-360	360	0	0	0	0	0	3.6	;
	53	68	0.00078	0.00545	0.00900	401	426	472	0	0	1	-360	360	0	0	0	0	0	6.6	;
	53	190	0.00222	0.01196	0.02035	381	381	381	0	0	1	-360	360	0	0	0	0	0	14.7	;
	54	63	0.00412	0.02158	0.03520	374	381	381	0	0	1	-360	360	0	0	0	0	0	25.7	;
	54	77	0.00631	0.03514	0.05182	374	400	435	0	0	1	-360	360	0	0	0	0	0	39.5	;
	54	77	0.00636	0.03898	0.06249	374	400	435	0	0	1	-360	360	0	0	0	0	0	46.1	;
	54	191	0.00237	0.01312	0.01925	182	229	229	0	0	1	-360	360	0	0	0	0	0	14.9	;
	54	191	0.00189	0.01296	0.02104	229	229	229	0	0	1	-360	360	0	0	0	0	0	15.5	;
	54	192	0.00309	0.01722	0.02516	374	400	435	0	0	1	-360	360	0	0	0	0	0	19.4	;
	54	200	0.00006	0.00035	0.00053	182	237	297	0	0	1	-360	360	0	0	0	0	0	0.4	;
	54	201	0.00006	0.00035	0.00053	182	237	297	0	0	1	-360	360	0	0	0	0	0	0.4	;
	54	202	0.00006	0.00035	0.00053	182	237	297	0	0	1	-360	360	0	0	0	0	0	0.4	;
	54	203	0.00005	0.00034	0.00053	182	237	297	0	0	1	-360	360	0	0	0	0	0	0.2	;
	55	58	0.00049	0.00177	0.22418	364	364	364	0	0	1	-360	360	0	0	0	0	0	7.8	;
	55	204	0.00041	0.00224	0.00340	381	381	381	0	0	1	-360	360	0	0	0	0	0	2.6	;
	55	205	0.00063	0.00332	0.00533	381	381	381	0	0	1	-360	360	0	0	0	0	0	3.9	;
	56	74	0.00719	0.04008	0.05857	382	400	435	0	0	1	-360	360	0	0	0	0	0	46.0	;
	56	205	0.00144	0.00779	0.01170	382	400	435	0	0	1	-360	360	0	0	0	0	0	8.9	;
	57	60	0.00351	0.01764	0.02842	381	381	381	0	0	1	-360	360	0	0	0	0	0	20.8	;
	57	67	0.00249	0.01299	0.02177	381	381	381	0	0	1	-360	360	0	0	0	0	0	15.7	;
	57	190	0.00222	0.01196	0.02035	381	381	381	0	0	1	-360	360	0	0	0	0	0	14.7	;
	57	210	0.00056	0.00586	0.01715	762	762	762	0	0	1	-360	360	0	0	0	0	0	9.4	;
	57	220	0.00042	0.00563	0.02152	1200	1200	1200	0	0	1	-360	360	0	0	0	0	0	10.4	;
	57	221	0.00055	0.00728	0.02882	762	762	762	0	0	1	-360	360	0	0	0	0	0	13.7	;
	58	219	0.00038	0.00138	0.17477	364	364	364	0	0	1	-360	360	0	0	0	0	0	6.2	;
...
];
%% generator cost data										
%	1	startup	shutdown	n	x1	y1	...	xn	yn	
%	2	startup	shutdown	n	c(n-1)	...	c0			
mpc.gencost = [										%
2	0	0	2	10	0	;			%
2	0	0	2	20	0	;			%
2	0	0	2	70	0	;			%
2	0	0	2	70	0	;			%
2	0	0	2	50	0	;			%
2	0	0	2	38.05	0	;			%
2	0	0	2	69.76	0	;			%
2	0	0	2	30	0	;			%
2	0	0	2	40	0	;			%
2	0	0	2	60	0	;			%
2	0	0	2	70	0	;			%
2	0	0	2	80	0	;			%
2	0	0	2	46	0	;			%
2	0	0	2	70	0	;			%
2	0	0	2	69.76	0	;			%
2	0	0	2	10	0	;			%
2	0	0	2	38.05	0	;			%
2	0	0	2	20	0	;			%
2	0	0	2	30	0	;			%
2	0	0	2	70	0	;			%
2	0	0	2	40	0	;			%
2	0	0	2	50	0	;			%
2	0	0	2	46	0	;			%
2	0	0	2	60	0	;			%
2	0	0	2	38.05	0	;			%
2	0	0	2	46	0	;			%
2	0	0	2	10	0	;			%
2	0	0	2	20	0	;			%
2	0	0	2	46	0	;			%
2	0	0	2	69.76	0	;			%
2	0	0	2	38.05	0	;			%
2	0	0	2	20	0	;			%
2	0	0	2	38.05	0	;			%
2	0	0	2	69.76	0	;			%
2	0	0	2	70	0	;			%
2	0	0	2	46	0	;			%
2	0	0	2	46	0	;			%
2	0	0	2	38.05	0	;			%
2	0	0	2	69.76	0	;			%
2	0	0	2	46	0	;			%
2	0	0	2	46	0	;			%
2	0	0	2	69.76	0	;			%
2	0	0	2	38.05	0	;			%
2	0	0	2	70	0	;			%
2	0	0	2	50	0	;			%
2	0	0	2	70	0	;			%
2	0	0	2	38.05	0	;			%
2	0	0	2	38.05	0	;			%
2	0	0	2	46	0	;			%
2	0	0	2	46	0	;			%
2	0	0	2	70	0	;			%
2	0	0	2	38.05	0	;			%
2	0	0	2	38.05	0	;			%
2	0	0	2	60	0	;			%
2	0	0	2	46	0	;			%
2	0	0	2	46	0	;			%
2	0	0	2	38.05	0	;			%
2	0	0	2	60	0	;			%
2	0	0	2	10	0	;			%
2	0	0	2	10	0	;			%
2	0	0	2	38.05	0	;			%
2	0	0	2	69.76	0	;			%
2	0	0	2	10	0	;			%
2	0	0	2	38.05	0	;			%
2	0	0	2	53.66	0	;			%
2	0	0	2	30	0	;			%   
2	0	0	2	30	0	;			%
2	0	0	2	30	0	;			%
2	0	0	2	30	0	;			%
2	0	0	2	30	0	;			%
2	0	0	2	38.05	0	;			%
2	0	0	2	38.05	0	;			%
2	0	0	2	38.05	0	;			%
2	0	0	2	38.05	0	;			%
2	0	0	2	45	0	;			%
2	0	0	2	38.05	0	;			%
2	0	0	2	38.05	0	;			%
2	0	0	2	70	0	;			%
2	0	0	2	38.05	0	;			%
2	0	0	2	38.05	0	;			%
2	0	0	2	38.05	0	;			%
2	0	0	2	38.05	0	;			%
2	0	0	2	38.05	0	;			%
2	0	0	2	45	0	;			%
2	0	0	2	38.05	0	;			%
2	0	0	2	38.05	0	;			%
2	0	0	2	45	0	;			%
2	0	0	2	38.05	0	;			%
2	0	0	2	60	0	;			%
2	0	0	2	10	0	;			%
2	0	0	2	10	0	;			%
2	0	0	2	38.05	0	;			%
2	0	0	2	69.76	0	;			%
2	0	0	2	10	0	;			%
2	0	0	2	38.05	0	;			%
2	0	0	2	53.66	0	;			%
2	0	0	2	30	0	;			%   
2	0	0	2	30	0	;			%
2	0	0	2	30	0	;			%
2	0	0	2	30	0	;			%
2	0	0	2	30	0	;			%
2	0	0	2	38.05	0	;			%
2	0	0	2	38.05	0	;			%
2	0	0	2	38.05	0	;			%
2	0	0	2	38.05	0	;			%
2	0	0	2	45	0	;			%
2	0	0	2	38.05	0	;			%
2	0	0	2	38.05	0	;			%
2	0	0	2	70	0	;			%
2	0	0	2	38.05	0	;			%
2	0	0	2	38.05	0	;			%
2	0	0	2	38.05	0	;			%
2	0	0	2	38.05	0	;			%
2	0	0	2	38.05	0	;			%
2	0	0	2	45	0	;			%
2	0	0	2	38.05	0	;			%
2	0	0	2	38.05	0	;			%
2	0	0	2	10	0	;			%
2	0	0	2	20	0	;			%
2	0	0	2	70	0	;			%
2	0	0	2	70	0	;			%
2	0	0	2	50	0	;			%
2	0	0	2	38.05	0	;			%
2	0	0	2	69.76	0	;			%
2	0	0	2	30	0	;			%
2	0	0	2	40	0	;			%
2	0	0	2	60	0	;			%
2	0	0	2	70	0	;			%
2	0	0	2	80	0	;			%
2	0	0	2	46	0	;			%
2	0	0	2	70	0	;			%
2	0	0	2	69.76	0	;			%
2	0	0	2	10	0	;			%
2	0	0	2	38.05	0	;			%
2	0	0	2	20	0	;			%
2	0	0	2	30	0	;			%
2	0	0	2	70	0	;			%
2	0	0	2	40	0	;			%
2	0	0	2	50	0	;			%
2	0	0	2	46	0	;			%
2	0	0	2	60	0	;			%
2	0	0	2	38.05	0	;			%
2	0	0	2	46	0	;			%
2	0	0	2	10	0	;			%
2	0	0	2	20	0	;			%
2	0	0	2	46	0	;			%
2	0	0	2	69.76	0	;			%
2	0	0	2	38.05	0	;			%
2	0	0	2	20	0	;			%
2	0	0	2	38.05	0	;			%
2	0	0	2	69.76	0	;			%
2	0	0	2	70	0	;			%
2	0	0	2	46	0	;			%
2	0	0	2	46	0	;			%
2	0	0	2	38.05	0	;			%
2	0	0	2	69.76	0	;			%
2	0	0	2	46	0	;			%
2	0	0	2	46	0	;			%
2	0	0	2	69.76	0	;			%
2	0	0	2	38.05	0	;			%
2	0	0	2	70	0	;			%
2	0	0	2	50	0	;			%
2	0	0	2	70	0	;			%
2	0	0	2	38.05	0	;			%
2	0	0	2	38.05	0	;			%
2	0	0	2	46	0	;			%
2	0	0	2	46	0	;			%
2	0	0	2	70	0	;			%
2	0	0	2	38.05	0	;			%
2	0	0	2	38.05	0	;			%
2	0	0	2	60	0	;			%
2	0	0	2	46	0	;			%
2	0	0	2	46	0	;			%
2	0	0	2	38.05	0	;			%
2	0	0	2	60	0	;			%
2	0	0	2	10	0	;			%
2	0	0	2	10	0	;			%
2	0	0	2	38.05	0	;			%
2	0	0	2	69.76	0	;			%
2	0	0	2	10	0	;			%
2	0	0	2	38.05	0	;			%
2	0	0	2	53.66	0	;			%
2	0	0	2	30	0	;			%   
2	0	0	2	30	0	;			%
2	0	0	2	30	0	;			%
2	0	0	2	30	0	;			%
2	0	0	2	30	0	;			%
2	0	0	2	38.05	0	;			%
2	0	0	2	38.05	0	;			%
2	0	0	2	38.05	0	;			%
2	0	0	2	38.05	0	;			%
2	0	0	2	45	0	;			%
2	0	0	2	38.05	0	;			%
2	0	0	2	38.05	0	;			%
2	0	0	2	70	0	;			%
2	0	0	2	38.05	0	;			%
2	0	0	2	38.05	0	;			%
2	0	0	2	38.05	0	;			%
2	0	0	2	38.05	0	;			%
2	0	0	2	38.05	0	;			%
...
];										